64
8.930228288118395 0.0 0.0 0.0 8.930220440419792 0.0 0.0 0.0 8.930070296958933
Ag       5.698861645    5.776745635    7.814849009
Ag       5.737184674    7.748427837    5.951322780
Ag       7.674807429    5.815340179    5.959236413
Ag       8.182440632    8.259313584    5.538075121
Ag       8.136362977    5.204141237    8.427492958
Ag       5.122298913    8.212809075    8.419841160
Ag       7.583291691    7.666187469    7.938672820
Ag       5.242275839    5.313325949    5.384692886
Mg      10.035821802   10.122301669   10.063174107
Mg      10.108339476   10.194128967    5.581550452
Mg      10.070265417    5.665229658   10.202028239
Mg      10.111259270    7.894125261    7.777934423
Mg      10.127768893    5.598285003    5.566170846
Mg      10.071750986    7.920249781    3.415262254
Mg      10.070295677    3.372288275    7.809420315
Mg      10.054956016    3.400416976    3.379880806
Mg       5.579193852   10.153652769   10.195171263
Mg       7.811495934   10.196709155    7.778933048
Mg       5.508382687   10.201999009    5.571106144
Mg       7.833362390   10.154297561    3.417132087
Mg       7.843106832    7.929843275   10.388157493
Mg       5.646216770    5.736190659   10.291389406
Mg       7.839823100    5.593530013    3.430200517
Mg       5.501112391    7.934839731    3.427506327
Mg       7.797967941    3.274408604   10.186571802
Mg       7.772274534    3.348267813    5.580061354
Mg       5.570743229    3.260598641    7.860550473
Mg       5.529756030    3.379971312    3.354181491
Mg       3.285810838   10.153858489    7.813313543
Mg       3.314016550   10.141272963    3.377814565
Mg       3.188899006    7.885183308   10.181963336
Mg       3.269703926    7.865502763    5.583372039
Mg       3.179113274    5.657319495    7.860044639
Mg       3.299572051    5.617159450    3.357087509
Mg       3.343131580    3.429090737   10.060212381
Mg       3.296504313    3.379949728    5.604733278
O       10.047988670   10.133872695    7.803339930
O       10.066255748   10.151729385    3.298518463
O       10.012321694    7.890601516   10.055774318
O       10.179567306    5.618106397    7.739033544
O       10.294095497    7.962676300    5.480890915
O       10.065707928    5.623542445    3.348873422
O       10.009116355    3.423511962   10.020037067
O       10.079997201    3.394499979    5.555415838
O        7.807333497   10.098569607   10.055892332
O        5.533684441   10.261401635    7.747384613
O        7.879804049   10.372421166    5.483341919
O        5.538309160   10.150140266    3.344325075
O        5.690732627    7.905532975   10.428645277
O        7.817117076    5.778151619   10.430482205
O        5.462091542    5.546447154    3.241682205
O        7.919896640    8.004015924    3.366722436
O        5.594389705    3.384309524   10.043143148
O        5.499937545    3.185460842    5.484014308
O        7.804712641    3.196466325    7.746539848
O        7.814704532    3.389711976    3.323623217
O        3.336263335   10.094973659   10.019425947
O        3.307261341   10.164565641    5.556493251
O        3.299195326    5.679360892   10.044070034
O        3.112529339    5.586382962    5.485852609
O        3.109877088    7.891978923    7.751745946
O        3.304455025    7.901102628    3.319722792
O        3.327690877    3.411551084    7.827867063
O        3.312315246    3.397190212    3.276505130
