   12

Ag     20.678289   20.678289   16.087979
Ag     18.723606   18.723606   16.088140
Ag     20.678325   20.678325   21.045254
Ag     20.708764   18.692863   18.566577
Ag     18.692863   20.708764   18.566577
Ag     18.723697   18.723697   21.045206
Ag     17.917868   21.484291   15.818591
Ag     21.484291   17.917868   15.818591
Ag     17.799021   17.799021   18.566610
Ag     17.917822   21.484302   21.314523
Ag     21.484302   17.917822   21.314523
Ag     21.602716   21.602716   18.566538
