   14

Ag     12.250353   11.886491   10.829864
Ag     14.890744   10.744024   10.263297
Ag     14.631584   13.683573   10.856260
Ag     13.822461   14.467016   13.591055
Ag     10.893120   14.743526   14.155870
Ag     12.054819   12.072609   13.688965
Ag     14.852508   11.791945   13.028072
Ag     11.943388   14.694923   11.397241
Ag     12.397747   16.973485   13.111512
Ag     13.134897    9.572417   12.304480
Ag      9.752770   12.939777   12.161012
Ag     17.128195   12.234173   11.303023
Ag     13.599969   12.548271    8.389129
Ag     12.668934   13.522318   16.089535
