   20

Ag     11.348832   10.758011    9.916376
Ag     14.402025   11.319838    9.776426
Ag     14.773162   14.359737    9.804798
Ag     12.464630   15.603062   15.051360
Ag     12.658583   13.038569   13.846794
Ag     11.842944   10.577444   15.003387
Ag     14.767373   11.200165   14.572533
Ag     11.943704   15.638792    9.962693
Ag     13.643875   15.482752   12.370109
Ag     13.028385   10.455053   12.325055
Ag     12.519990   13.080342   11.095521
Ag     15.228368   12.739471   12.164293
Ag     12.387047   13.124282    8.336104
Ag     13.214623   12.946507   16.546666
Ag     16.498876   15.318283   12.037728
Ag     10.359322   11.789707   12.600415
Ag     15.840965    9.934493   11.992444
Ag     10.732508   14.826008   12.630915
Ag      9.850044   13.416116   10.168984
Ag     15.148359   14.301014   14.599992
